# CHD package for  MODFLOW-2005, generated by Flopy.
       360
       360         0 # stress period 0
         1         1         1  -7.5000000E+00  -7.5000000E+00
         1         1       180   7.5000000E+00   7.5000000E+00
         1         2         1  -7.5000000E+00  -7.5000000E+00
         1         2       180   7.5000000E+00   7.5000000E+00
         1         3         1  -7.5000000E+00  -7.5000000E+00
         1         3       180   7.5000000E+00   7.5000000E+00
         1         4         1  -7.5000000E+00  -7.5000000E+00
         1         4       180   7.5000000E+00   7.5000000E+00
         1         5         1  -7.5000000E+00  -7.5000000E+00
         1         5       180   7.5000000E+00   7.5000000E+00
         1         6         1  -7.5000000E+00  -7.5000000E+00
         1         6       180   7.5000000E+00   7.5000000E+00
         1         7         1  -7.5000000E+00  -7.5000000E+00
         1         7       180   7.5000000E+00   7.5000000E+00
         1         8         1  -7.5000000E+00  -7.5000000E+00
         1         8       180   7.5000000E+00   7.5000000E+00
         1         9         1  -7.5000000E+00  -7.5000000E+00
         1         9       180   7.5000000E+00   7.5000000E+00
         1        10         1  -7.5000000E+00  -7.5000000E+00
         1        10       180   7.5000000E+00   7.5000000E+00
         1        11         1  -7.5000000E+00  -7.5000000E+00
         1        11       180   7.5000000E+00   7.5000000E+00
         1        12         1  -7.5000000E+00  -7.5000000E+00
         1        12       180   7.5000000E+00   7.5000000E+00
         1        13         1  -7.5000000E+00  -7.5000000E+00
         1        13       180   7.5000000E+00   7.5000000E+00
         1        14         1  -7.5000000E+00  -7.5000000E+00
         1        14       180   7.5000000E+00   7.5000000E+00
         1        15         1  -7.5000000E+00  -7.5000000E+00
         1        15       180   7.5000000E+00   7.5000000E+00
         1        16         1  -7.5000000E+00  -7.5000000E+00
         1        16       180   7.5000000E+00   7.5000000E+00
         1        17         1  -7.5000000E+00  -7.5000000E+00
         1        17       180   7.5000000E+00   7.5000000E+00
         1        18         1  -7.5000000E+00  -7.5000000E+00
         1        18       180   7.5000000E+00   7.5000000E+00
         1        19         1  -7.5000000E+00  -7.5000000E+00
         1        19       180   7.5000000E+00   7.5000000E+00
         1        20         1  -7.5000000E+00  -7.5000000E+00
         1        20       180   7.5000000E+00   7.5000000E+00
         1        21         1  -7.5000000E+00  -7.5000000E+00
         1        21       180   7.5000000E+00   7.5000000E+00
         1        22         1  -7.5000000E+00  -7.5000000E+00
         1        22       180   7.5000000E+00   7.5000000E+00
         1        23         1  -7.5000000E+00  -7.5000000E+00
         1        23       180   7.5000000E+00   7.5000000E+00
         1        24         1  -7.5000000E+00  -7.5000000E+00
         1        24       180   7.5000000E+00   7.5000000E+00
         1        25         1  -7.5000000E+00  -7.5000000E+00
         1        25       180   7.5000000E+00   7.5000000E+00
         1        26         1  -7.5000000E+00  -7.5000000E+00
         1        26       180   7.5000000E+00   7.5000000E+00
         1        27         1  -7.5000000E+00  -7.5000000E+00
         1        27       180   7.5000000E+00   7.5000000E+00
         1        28         1  -7.5000000E+00  -7.5000000E+00
         1        28       180   7.5000000E+00   7.5000000E+00
         1        29         1  -7.5000000E+00  -7.5000000E+00
         1        29       180   7.5000000E+00   7.5000000E+00
         1        30         1  -7.5000000E+00  -7.5000000E+00
         1        30       180   7.5000000E+00   7.5000000E+00
         1        31         1  -7.5000000E+00  -7.5000000E+00
         1        31       180   7.5000000E+00   7.5000000E+00
         1        32         1  -7.5000000E+00  -7.5000000E+00
         1        32       180   7.5000000E+00   7.5000000E+00
         1        33         1  -7.5000000E+00  -7.5000000E+00
         1        33       180   7.5000000E+00   7.5000000E+00
         1        34         1  -7.5000000E+00  -7.5000000E+00
         1        34       180   7.5000000E+00   7.5000000E+00
         1        35         1  -7.5000000E+00  -7.5000000E+00
         1        35       180   7.5000000E+00   7.5000000E+00
         1        36         1  -7.5000000E+00  -7.5000000E+00
         1        36       180   7.5000000E+00   7.5000000E+00
         1        37         1  -7.5000000E+00  -7.5000000E+00
         1        37       180   7.5000000E+00   7.5000000E+00
         1        38         1  -7.5000000E+00  -7.5000000E+00
         1        38       180   7.5000000E+00   7.5000000E+00
         1        39         1  -7.5000000E+00  -7.5000000E+00
         1        39       180   7.5000000E+00   7.5000000E+00
         1        40         1  -7.5000000E+00  -7.5000000E+00
         1        40       180   7.5000000E+00   7.5000000E+00
         1        41         1  -7.5000000E+00  -7.5000000E+00
         1        41       180   7.5000000E+00   7.5000000E+00
         1        42         1  -7.5000000E+00  -7.5000000E+00
         1        42       180   7.5000000E+00   7.5000000E+00
         1        43         1  -7.5000000E+00  -7.5000000E+00
         1        43       180   7.5000000E+00   7.5000000E+00
         1        44         1  -7.5000000E+00  -7.5000000E+00
         1        44       180   7.5000000E+00   7.5000000E+00
         1        45         1  -7.5000000E+00  -7.5000000E+00
         1        45       180   7.5000000E+00   7.5000000E+00
         1        46         1  -7.5000000E+00  -7.5000000E+00
         1        46       180   7.5000000E+00   7.5000000E+00
         1        47         1  -7.5000000E+00  -7.5000000E+00
         1        47       180   7.5000000E+00   7.5000000E+00
         1        48         1  -7.5000000E+00  -7.5000000E+00
         1        48       180   7.5000000E+00   7.5000000E+00
         1        49         1  -7.5000000E+00  -7.5000000E+00
         1        49       180   7.5000000E+00   7.5000000E+00
         1        50         1  -7.5000000E+00  -7.5000000E+00
         1        50       180   7.5000000E+00   7.5000000E+00
         1        51         1  -7.5000000E+00  -7.5000000E+00
         1        51       180   7.5000000E+00   7.5000000E+00
         1        52         1  -7.5000000E+00  -7.5000000E+00
         1        52       180   7.5000000E+00   7.5000000E+00
         1        53         1  -7.5000000E+00  -7.5000000E+00
         1        53       180   7.5000000E+00   7.5000000E+00
         1        54         1  -7.5000000E+00  -7.5000000E+00
         1        54       180   7.5000000E+00   7.5000000E+00
         1        55         1  -7.5000000E+00  -7.5000000E+00
         1        55       180   7.5000000E+00   7.5000000E+00
         1        56         1  -7.5000000E+00  -7.5000000E+00
         1        56       180   7.5000000E+00   7.5000000E+00
         1        57         1  -7.5000000E+00  -7.5000000E+00
         1        57       180   7.5000000E+00   7.5000000E+00
         1        58         1  -7.5000000E+00  -7.5000000E+00
         1        58       180   7.5000000E+00   7.5000000E+00
         1        59         1  -7.5000000E+00  -7.5000000E+00
         1        59       180   7.5000000E+00   7.5000000E+00
         1        60         1  -7.5000000E+00  -7.5000000E+00
         1        60       180   7.5000000E+00   7.5000000E+00
         1        61         1  -7.5000000E+00  -7.5000000E+00
         1        61       180   7.5000000E+00   7.5000000E+00
         1        62         1  -7.5000000E+00  -7.5000000E+00
         1        62       180   7.5000000E+00   7.5000000E+00
         1        63         1  -7.5000000E+00  -7.5000000E+00
         1        63       180   7.5000000E+00   7.5000000E+00
         1        64         1  -7.5000000E+00  -7.5000000E+00
         1        64       180   7.5000000E+00   7.5000000E+00
         1        65         1  -7.5000000E+00  -7.5000000E+00
         1        65       180   7.5000000E+00   7.5000000E+00
         1        66         1  -7.5000000E+00  -7.5000000E+00
         1        66       180   7.5000000E+00   7.5000000E+00
         1        67         1  -7.5000000E+00  -7.5000000E+00
         1        67       180   7.5000000E+00   7.5000000E+00
         1        68         1  -7.5000000E+00  -7.5000000E+00
         1        68       180   7.5000000E+00   7.5000000E+00
         1        69         1  -7.5000000E+00  -7.5000000E+00
         1        69       180   7.5000000E+00   7.5000000E+00
         1        70         1  -7.5000000E+00  -7.5000000E+00
         1        70       180   7.5000000E+00   7.5000000E+00
         1        71         1  -7.5000000E+00  -7.5000000E+00
         1        71       180   7.5000000E+00   7.5000000E+00
         1        72         1  -7.5000000E+00  -7.5000000E+00
         1        72       180   7.5000000E+00   7.5000000E+00
         1        73         1  -7.5000000E+00  -7.5000000E+00
         1        73       180   7.5000000E+00   7.5000000E+00
         1        74         1  -7.5000000E+00  -7.5000000E+00
         1        74       180   7.5000000E+00   7.5000000E+00
         1        75         1  -7.5000000E+00  -7.5000000E+00
         1        75       180   7.5000000E+00   7.5000000E+00
         1        76         1  -7.5000000E+00  -7.5000000E+00
         1        76       180   7.5000000E+00   7.5000000E+00
         1        77         1  -7.5000000E+00  -7.5000000E+00
         1        77       180   7.5000000E+00   7.5000000E+00
         1        78         1  -7.5000000E+00  -7.5000000E+00
         1        78       180   7.5000000E+00   7.5000000E+00
         1        79         1  -7.5000000E+00  -7.5000000E+00
         1        79       180   7.5000000E+00   7.5000000E+00
         1        80         1  -7.5000000E+00  -7.5000000E+00
         1        80       180   7.5000000E+00   7.5000000E+00
         1        81         1  -7.5000000E+00  -7.5000000E+00
         1        81       180   7.5000000E+00   7.5000000E+00
         1        82         1  -7.5000000E+00  -7.5000000E+00
         1        82       180   7.5000000E+00   7.5000000E+00
         1        83         1  -7.5000000E+00  -7.5000000E+00
         1        83       180   7.5000000E+00   7.5000000E+00
         1        84         1  -7.5000000E+00  -7.5000000E+00
         1        84       180   7.5000000E+00   7.5000000E+00
         1        85         1  -7.5000000E+00  -7.5000000E+00
         1        85       180   7.5000000E+00   7.5000000E+00
         1        86         1  -7.5000000E+00  -7.5000000E+00
         1        86       180   7.5000000E+00   7.5000000E+00
         1        87         1  -7.5000000E+00  -7.5000000E+00
         1        87       180   7.5000000E+00   7.5000000E+00
         1        88         1  -7.5000000E+00  -7.5000000E+00
         1        88       180   7.5000000E+00   7.5000000E+00
         1        89         1  -7.5000000E+00  -7.5000000E+00
         1        89       180   7.5000000E+00   7.5000000E+00
         1        90         1  -7.5000000E+00  -7.5000000E+00
         1        90       180   7.5000000E+00   7.5000000E+00
         1        91         1  -7.5000000E+00  -7.5000000E+00
         1        91       180   7.5000000E+00   7.5000000E+00
         1        92         1  -7.5000000E+00  -7.5000000E+00
         1        92       180   7.5000000E+00   7.5000000E+00
         1        93         1  -7.5000000E+00  -7.5000000E+00
         1        93       180   7.5000000E+00   7.5000000E+00
         1        94         1  -7.5000000E+00  -7.5000000E+00
         1        94       180   7.5000000E+00   7.5000000E+00
         1        95         1  -7.5000000E+00  -7.5000000E+00
         1        95       180   7.5000000E+00   7.5000000E+00
         1        96         1  -7.5000000E+00  -7.5000000E+00
         1        96       180   7.5000000E+00   7.5000000E+00
         1        97         1  -7.5000000E+00  -7.5000000E+00
         1        97       180   7.5000000E+00   7.5000000E+00
         1        98         1  -7.5000000E+00  -7.5000000E+00
         1        98       180   7.5000000E+00   7.5000000E+00
         1        99         1  -7.5000000E+00  -7.5000000E+00
         1        99       180   7.5000000E+00   7.5000000E+00
         1       100         1  -7.5000000E+00  -7.5000000E+00
         1       100       180   7.5000000E+00   7.5000000E+00
         1       101         1  -7.5000000E+00  -7.5000000E+00
         1       101       180   7.5000000E+00   7.5000000E+00
         1       102         1  -7.5000000E+00  -7.5000000E+00
         1       102       180   7.5000000E+00   7.5000000E+00
         1       103         1  -7.5000000E+00  -7.5000000E+00
         1       103       180   7.5000000E+00   7.5000000E+00
         1       104         1  -7.5000000E+00  -7.5000000E+00
         1       104       180   7.5000000E+00   7.5000000E+00
         1       105         1  -7.5000000E+00  -7.5000000E+00
         1       105       180   7.5000000E+00   7.5000000E+00
         1       106         1  -7.5000000E+00  -7.5000000E+00
         1       106       180   7.5000000E+00   7.5000000E+00
         1       107         1  -7.5000000E+00  -7.5000000E+00
         1       107       180   7.5000000E+00   7.5000000E+00
         1       108         1  -7.5000000E+00  -7.5000000E+00
         1       108       180   7.5000000E+00   7.5000000E+00
         1       109         1  -7.5000000E+00  -7.5000000E+00
         1       109       180   7.5000000E+00   7.5000000E+00
         1       110         1  -7.5000000E+00  -7.5000000E+00
         1       110       180   7.5000000E+00   7.5000000E+00
         1       111         1  -7.5000000E+00  -7.5000000E+00
         1       111       180   7.5000000E+00   7.5000000E+00
         1       112         1  -7.5000000E+00  -7.5000000E+00
         1       112       180   7.5000000E+00   7.5000000E+00
         1       113         1  -7.5000000E+00  -7.5000000E+00
         1       113       180   7.5000000E+00   7.5000000E+00
         1       114         1  -7.5000000E+00  -7.5000000E+00
         1       114       180   7.5000000E+00   7.5000000E+00
         1       115         1  -7.5000000E+00  -7.5000000E+00
         1       115       180   7.5000000E+00   7.5000000E+00
         1       116         1  -7.5000000E+00  -7.5000000E+00
         1       116       180   7.5000000E+00   7.5000000E+00
         1       117         1  -7.5000000E+00  -7.5000000E+00
         1       117       180   7.5000000E+00   7.5000000E+00
         1       118         1  -7.5000000E+00  -7.5000000E+00
         1       118       180   7.5000000E+00   7.5000000E+00
         1       119         1  -7.5000000E+00  -7.5000000E+00
         1       119       180   7.5000000E+00   7.5000000E+00
         1       120         1  -7.5000000E+00  -7.5000000E+00
         1       120       180   7.5000000E+00   7.5000000E+00
         1       121         1  -7.5000000E+00  -7.5000000E+00
         1       121       180   7.5000000E+00   7.5000000E+00
         1       122         1  -7.5000000E+00  -7.5000000E+00
         1       122       180   7.5000000E+00   7.5000000E+00
         1       123         1  -7.5000000E+00  -7.5000000E+00
         1       123       180   7.5000000E+00   7.5000000E+00
         1       124         1  -7.5000000E+00  -7.5000000E+00
         1       124       180   7.5000000E+00   7.5000000E+00
         1       125         1  -7.5000000E+00  -7.5000000E+00
         1       125       180   7.5000000E+00   7.5000000E+00
         1       126         1  -7.5000000E+00  -7.5000000E+00
         1       126       180   7.5000000E+00   7.5000000E+00
         1       127         1  -7.5000000E+00  -7.5000000E+00
         1       127       180   7.5000000E+00   7.5000000E+00
         1       128         1  -7.5000000E+00  -7.5000000E+00
         1       128       180   7.5000000E+00   7.5000000E+00
         1       129         1  -7.5000000E+00  -7.5000000E+00
         1       129       180   7.5000000E+00   7.5000000E+00
         1       130         1  -7.5000000E+00  -7.5000000E+00
         1       130       180   7.5000000E+00   7.5000000E+00
         1       131         1  -7.5000000E+00  -7.5000000E+00
         1       131       180   7.5000000E+00   7.5000000E+00
         1       132         1  -7.5000000E+00  -7.5000000E+00
         1       132       180   7.5000000E+00   7.5000000E+00
         1       133         1  -7.5000000E+00  -7.5000000E+00
         1       133       180   7.5000000E+00   7.5000000E+00
         1       134         1  -7.5000000E+00  -7.5000000E+00
         1       134       180   7.5000000E+00   7.5000000E+00
         1       135         1  -7.5000000E+00  -7.5000000E+00
         1       135       180   7.5000000E+00   7.5000000E+00
         1       136         1  -7.5000000E+00  -7.5000000E+00
         1       136       180   7.5000000E+00   7.5000000E+00
         1       137         1  -7.5000000E+00  -7.5000000E+00
         1       137       180   7.5000000E+00   7.5000000E+00
         1       138         1  -7.5000000E+00  -7.5000000E+00
         1       138       180   7.5000000E+00   7.5000000E+00
         1       139         1  -7.5000000E+00  -7.5000000E+00
         1       139       180   7.5000000E+00   7.5000000E+00
         1       140         1  -7.5000000E+00  -7.5000000E+00
         1       140       180   7.5000000E+00   7.5000000E+00
         1       141         1  -7.5000000E+00  -7.5000000E+00
         1       141       180   7.5000000E+00   7.5000000E+00
         1       142         1  -7.5000000E+00  -7.5000000E+00
         1       142       180   7.5000000E+00   7.5000000E+00
         1       143         1  -7.5000000E+00  -7.5000000E+00
         1       143       180   7.5000000E+00   7.5000000E+00
         1       144         1  -7.5000000E+00  -7.5000000E+00
         1       144       180   7.5000000E+00   7.5000000E+00
         1       145         1  -7.5000000E+00  -7.5000000E+00
         1       145       180   7.5000000E+00   7.5000000E+00
         1       146         1  -7.5000000E+00  -7.5000000E+00
         1       146       180   7.5000000E+00   7.5000000E+00
         1       147         1  -7.5000000E+00  -7.5000000E+00
         1       147       180   7.5000000E+00   7.5000000E+00
         1       148         1  -7.5000000E+00  -7.5000000E+00
         1       148       180   7.5000000E+00   7.5000000E+00
         1       149         1  -7.5000000E+00  -7.5000000E+00
         1       149       180   7.5000000E+00   7.5000000E+00
         1       150         1  -7.5000000E+00  -7.5000000E+00
         1       150       180   7.5000000E+00   7.5000000E+00
         1       151         1  -7.5000000E+00  -7.5000000E+00
         1       151       180   7.5000000E+00   7.5000000E+00
         1       152         1  -7.5000000E+00  -7.5000000E+00
         1       152       180   7.5000000E+00   7.5000000E+00
         1       153         1  -7.5000000E+00  -7.5000000E+00
         1       153       180   7.5000000E+00   7.5000000E+00
         1       154         1  -7.5000000E+00  -7.5000000E+00
         1       154       180   7.5000000E+00   7.5000000E+00
         1       155         1  -7.5000000E+00  -7.5000000E+00
         1       155       180   7.5000000E+00   7.5000000E+00
         1       156         1  -7.5000000E+00  -7.5000000E+00
         1       156       180   7.5000000E+00   7.5000000E+00
         1       157         1  -7.5000000E+00  -7.5000000E+00
         1       157       180   7.5000000E+00   7.5000000E+00
         1       158         1  -7.5000000E+00  -7.5000000E+00
         1       158       180   7.5000000E+00   7.5000000E+00
         1       159         1  -7.5000000E+00  -7.5000000E+00
         1       159       180   7.5000000E+00   7.5000000E+00
         1       160         1  -7.5000000E+00  -7.5000000E+00
         1       160       180   7.5000000E+00   7.5000000E+00
         1       161         1  -7.5000000E+00  -7.5000000E+00
         1       161       180   7.5000000E+00   7.5000000E+00
         1       162         1  -7.5000000E+00  -7.5000000E+00
         1       162       180   7.5000000E+00   7.5000000E+00
         1       163         1  -7.5000000E+00  -7.5000000E+00
         1       163       180   7.5000000E+00   7.5000000E+00
         1       164         1  -7.5000000E+00  -7.5000000E+00
         1       164       180   7.5000000E+00   7.5000000E+00
         1       165         1  -7.5000000E+00  -7.5000000E+00
         1       165       180   7.5000000E+00   7.5000000E+00
         1       166         1  -7.5000000E+00  -7.5000000E+00
         1       166       180   7.5000000E+00   7.5000000E+00
         1       167         1  -7.5000000E+00  -7.5000000E+00
         1       167       180   7.5000000E+00   7.5000000E+00
         1       168         1  -7.5000000E+00  -7.5000000E+00
         1       168       180   7.5000000E+00   7.5000000E+00
         1       169         1  -7.5000000E+00  -7.5000000E+00
         1       169       180   7.5000000E+00   7.5000000E+00
         1       170         1  -7.5000000E+00  -7.5000000E+00
         1       170       180   7.5000000E+00   7.5000000E+00
         1       171         1  -7.5000000E+00  -7.5000000E+00
         1       171       180   7.5000000E+00   7.5000000E+00
         1       172         1  -7.5000000E+00  -7.5000000E+00
         1       172       180   7.5000000E+00   7.5000000E+00
         1       173         1  -7.5000000E+00  -7.5000000E+00
         1       173       180   7.5000000E+00   7.5000000E+00
         1       174         1  -7.5000000E+00  -7.5000000E+00
         1       174       180   7.5000000E+00   7.5000000E+00
         1       175         1  -7.5000000E+00  -7.5000000E+00
         1       175       180   7.5000000E+00   7.5000000E+00
         1       176         1  -7.5000000E+00  -7.5000000E+00
         1       176       180   7.5000000E+00   7.5000000E+00
         1       177         1  -7.5000000E+00  -7.5000000E+00
         1       177       180   7.5000000E+00   7.5000000E+00
         1       178         1  -7.5000000E+00  -7.5000000E+00
         1       178       180   7.5000000E+00   7.5000000E+00
         1       179         1  -7.5000000E+00  -7.5000000E+00
         1       179       180   7.5000000E+00   7.5000000E+00
         1       180         1  -7.5000000E+00  -7.5000000E+00
         1       180       180   7.5000000E+00   7.5000000E+00
       360         0 # stress period 1
         1         1         1  -7.5000000E+00  -7.5000000E+00
         1         1       180   7.5000000E+00   7.5000000E+00
         1         2         1  -7.5000000E+00  -7.5000000E+00
         1         2       180   7.5000000E+00   7.5000000E+00
         1         3         1  -7.5000000E+00  -7.5000000E+00
         1         3       180   7.5000000E+00   7.5000000E+00
         1         4         1  -7.5000000E+00  -7.5000000E+00
         1         4       180   7.5000000E+00   7.5000000E+00
         1         5         1  -7.5000000E+00  -7.5000000E+00
         1         5       180   7.5000000E+00   7.5000000E+00
         1         6         1  -7.5000000E+00  -7.5000000E+00
         1         6       180   7.5000000E+00   7.5000000E+00
         1         7         1  -7.5000000E+00  -7.5000000E+00
         1         7       180   7.5000000E+00   7.5000000E+00
         1         8         1  -7.5000000E+00  -7.5000000E+00
         1         8       180   7.5000000E+00   7.5000000E+00
         1         9         1  -7.5000000E+00  -7.5000000E+00
         1         9       180   7.5000000E+00   7.5000000E+00
         1        10         1  -7.5000000E+00  -7.5000000E+00
         1        10       180   7.5000000E+00   7.5000000E+00
         1        11         1  -7.5000000E+00  -7.5000000E+00
         1        11       180   7.5000000E+00   7.5000000E+00
         1        12         1  -7.5000000E+00  -7.5000000E+00
         1        12       180   7.5000000E+00   7.5000000E+00
         1        13         1  -7.5000000E+00  -7.5000000E+00
         1        13       180   7.5000000E+00   7.5000000E+00
         1        14         1  -7.5000000E+00  -7.5000000E+00
         1        14       180   7.5000000E+00   7.5000000E+00
         1        15         1  -7.5000000E+00  -7.5000000E+00
         1        15       180   7.5000000E+00   7.5000000E+00
         1        16         1  -7.5000000E+00  -7.5000000E+00
         1        16       180   7.5000000E+00   7.5000000E+00
         1        17         1  -7.5000000E+00  -7.5000000E+00
         1        17       180   7.5000000E+00   7.5000000E+00
         1        18         1  -7.5000000E+00  -7.5000000E+00
         1        18       180   7.5000000E+00   7.5000000E+00
         1        19         1  -7.5000000E+00  -7.5000000E+00
         1        19       180   7.5000000E+00   7.5000000E+00
         1        20         1  -7.5000000E+00  -7.5000000E+00
         1        20       180   7.5000000E+00   7.5000000E+00
         1        21         1  -7.5000000E+00  -7.5000000E+00
         1        21       180   7.5000000E+00   7.5000000E+00
         1        22         1  -7.5000000E+00  -7.5000000E+00
         1        22       180   7.5000000E+00   7.5000000E+00
         1        23         1  -7.5000000E+00  -7.5000000E+00
         1        23       180   7.5000000E+00   7.5000000E+00
         1        24         1  -7.5000000E+00  -7.5000000E+00
         1        24       180   7.5000000E+00   7.5000000E+00
         1        25         1  -7.5000000E+00  -7.5000000E+00
         1        25       180   7.5000000E+00   7.5000000E+00
         1        26         1  -7.5000000E+00  -7.5000000E+00
         1        26       180   7.5000000E+00   7.5000000E+00
         1        27         1  -7.5000000E+00  -7.5000000E+00
         1        27       180   7.5000000E+00   7.5000000E+00
         1        28         1  -7.5000000E+00  -7.5000000E+00
         1        28       180   7.5000000E+00   7.5000000E+00
         1        29         1  -7.5000000E+00  -7.5000000E+00
         1        29       180   7.5000000E+00   7.5000000E+00
         1        30         1  -7.5000000E+00  -7.5000000E+00
         1        30       180   7.5000000E+00   7.5000000E+00
         1        31         1  -7.5000000E+00  -7.5000000E+00
         1        31       180   7.5000000E+00   7.5000000E+00
         1        32         1  -7.5000000E+00  -7.5000000E+00
         1        32       180   7.5000000E+00   7.5000000E+00
         1        33         1  -7.5000000E+00  -7.5000000E+00
         1        33       180   7.5000000E+00   7.5000000E+00
         1        34         1  -7.5000000E+00  -7.5000000E+00
         1        34       180   7.5000000E+00   7.5000000E+00
         1        35         1  -7.5000000E+00  -7.5000000E+00
         1        35       180   7.5000000E+00   7.5000000E+00
         1        36         1  -7.5000000E+00  -7.5000000E+00
         1        36       180   7.5000000E+00   7.5000000E+00
         1        37         1  -7.5000000E+00  -7.5000000E+00
         1        37       180   7.5000000E+00   7.5000000E+00
         1        38         1  -7.5000000E+00  -7.5000000E+00
         1        38       180   7.5000000E+00   7.5000000E+00
         1        39         1  -7.5000000E+00  -7.5000000E+00
         1        39       180   7.5000000E+00   7.5000000E+00
         1        40         1  -7.5000000E+00  -7.5000000E+00
         1        40       180   7.5000000E+00   7.5000000E+00
         1        41         1  -7.5000000E+00  -7.5000000E+00
         1        41       180   7.5000000E+00   7.5000000E+00
         1        42         1  -7.5000000E+00  -7.5000000E+00
         1        42       180   7.5000000E+00   7.5000000E+00
         1        43         1  -7.5000000E+00  -7.5000000E+00
         1        43       180   7.5000000E+00   7.5000000E+00
         1        44         1  -7.5000000E+00  -7.5000000E+00
         1        44       180   7.5000000E+00   7.5000000E+00
         1        45         1  -7.5000000E+00  -7.5000000E+00
         1        45       180   7.5000000E+00   7.5000000E+00
         1        46         1  -7.5000000E+00  -7.5000000E+00
         1        46       180   7.5000000E+00   7.5000000E+00
         1        47         1  -7.5000000E+00  -7.5000000E+00
         1        47       180   7.5000000E+00   7.5000000E+00
         1        48         1  -7.5000000E+00  -7.5000000E+00
         1        48       180   7.5000000E+00   7.5000000E+00
         1        49         1  -7.5000000E+00  -7.5000000E+00
         1        49       180   7.5000000E+00   7.5000000E+00
         1        50         1  -7.5000000E+00  -7.5000000E+00
         1        50       180   7.5000000E+00   7.5000000E+00
         1        51         1  -7.5000000E+00  -7.5000000E+00
         1        51       180   7.5000000E+00   7.5000000E+00
         1        52         1  -7.5000000E+00  -7.5000000E+00
         1        52       180   7.5000000E+00   7.5000000E+00
         1        53         1  -7.5000000E+00  -7.5000000E+00
         1        53       180   7.5000000E+00   7.5000000E+00
         1        54         1  -7.5000000E+00  -7.5000000E+00
         1        54       180   7.5000000E+00   7.5000000E+00
         1        55         1  -7.5000000E+00  -7.5000000E+00
         1        55       180   7.5000000E+00   7.5000000E+00
         1        56         1  -7.5000000E+00  -7.5000000E+00
         1        56       180   7.5000000E+00   7.5000000E+00
         1        57         1  -7.5000000E+00  -7.5000000E+00