# LPF package for  MODFLOW-2005, generated by Flopy.
         0    -1E+30         0  
         0
         0
   1.000000E+00
         0
         0
CONSTANT    2.500000E+00                           #hk layer 1                    
CONSTANT    2.500000E+00                           #vka layer 1                   
CONSTANT    2.000000E-04                           #ss layer 1                    
