# OC package for  MODFLOW-2005, generated by Flopy.
HEAD PRINT FORMAT   0
HEAD SAVE UNIT    51
DRAWDOWN PRINT FORMAT   0
COMPACT BUDGET AUX

period 1 step 1 
save head

period 1 step 2 
save head

period 1 step 3 
save head

period 2 step 1 
save head

period 2 step 2 
save head

period 2 step 3 
save head

period 2 step 4 
save head

period 2 step 5 
save head

period 2 step 6 
save head

period 2 step 7 
save head

period 2 step 8 
save head

period 2 step 9 
save head

period 3 step 1 
save head

period 3 step 2 
save head

period 3 step 3 
save head

period 4 step 1 
save head

period 4 step 2 
save head

period 4 step 3 
save head

period 4 step 4 
save head

period 4 step 5 
save head

period 4 step 6 
save head

period 4 step 7 
save head

period 4 step 8 
save head

period 4 step 9 
save head

period 5 step 1 
save head

period 5 step 2 
save head

period 5 step 3 
save head

period 6 step 1 
save head

period 6 step 2 
save head

period 6 step 3 
save head

period 6 step 4 
save head

period 6 step 5 
save head

period 6 step 6 
save head

period 6 step 7 
save head

period 6 step 8 
save head

period 6 step 9 
save head

period 7 step 1 
save head

period 7 step 2 
save head

period 7 step 3 
save head

period 8 step 1 
save head

period 8 step 2 
save head

period 8 step 3 
save head

period 8 step 4 
save head

period 8 step 5 
save head

period 8 step 6 
save head

period 8 step 7 
save head

period 8 step 8 
save head

period 8 step 9 
save head

period 9 step 1 
save head

period 9 step 2 
save head

period 9 step 3 
save head

period 10 step 1 
save head

period 10 step 2 
save head

period 10 step 3 
save head

period 10 step 4 
save head

period 10 step 5 
save head

period 10 step 6 
save head

period 10 step 7 
save head

period 10 step 8 
save head

period 10 step 9 
save head

period 11 step 1 
save head

period 11 step 2 
save head

period 11 step 3 
save head

period 12 step 1 
save head

period 12 step 2 
save head

period 12 step 3 
save head

period 12 step 4 
save head

period 12 step 5 
save head

period 12 step 6 
save head

period 12 step 7 
save head

period 12 step 8 
save head

period 12 step 9 
save head

period 13 step 1 
save head

period 13 step 2 
save head

period 13 step 3 
save head

period 14 step 1 
save head

period 14 step 2 
save head

period 14 step 3 
save head

period 14 step 4 
save head

period 14 step 5 
save head

period 14 step 6 
save head

period 14 step 7 
save head

period 14 step 8 
save head

period 14 step 9 
save head

period 15 step 1 
save head

period 15 step 2 
save head

period 15 step 3 
save head

period 16 step 1 
save head

period 16 step 2 
save head

period 16 step 3 
save head

period 16 step 4 
save head

period 16 step 5 
save head

period 16 step 6 
save head

period 16 step 7 
save head

period 16 step 8 
save head

period 16 step 9 
save head

period 17 step 1 
save head

period 17 step 2 
save head

period 17 step 3 
save head

period 18 step 1 
save head

period 18 step 2 
save head

period 18 step 3 
save head

period 18 step 4 
save head

period 18 step 5 
save head

period 18 step 6 
save head

period 18 step 7 
save head

period 18 step 8 
save head

period 18 step 9 
save head

period 19 step 1 
save head

period 19 step 2 
save head

period 19 step 3 
save head

period 20 step 1 
save head

period 20 step 2 
save head

period 20 step 3 
save head

period 20 step 4 
save head

period 20 step 5 
save head

period 20 step 6 
save head

period 20 step 7 
save head

period 20 step 8 
save head

period 20 step 9 
save head

