# Name file for MT3DMS, generated by Flopy version 3.2.6.
LIST              16  mt.list
FTL               10  mt3d_link.ftl 
BTN               31  mt.btn 
ADV               32  mt.adv 
SSM               34  mt.ssm 
GCG               35  mt.gcg 
